%chk=C:\G09W\Final\140tdenergy.chk
# td b3lyp/3-21g maxdisk=2GB geom=connectivity

Title Card Required

0 1
 C                 -2.33356183   -0.70394063   -0.16414458
 C                 -0.93927091   -0.82029243   -0.08453879
 C                 -0.16477430    0.28313149    0.29825698
 C                 -0.78456876    1.50290662    0.60144901
 C                 -2.17885969    1.61925834    0.52184354
 C                 -2.95335625    0.51583462    0.13904706
 H                 -2.92490703   -1.54642875   -0.45641947
 H                 -0.46604420   -1.75161822   -0.31603128
 H                 -0.19322350    2.34539492    0.89372327
 H                 -2.65208669    2.55058309    0.75333955
 C                  1.36741381    0.15527343    0.38573215
 N                  2.50819760    0.06007876    0.45086183
 N                 -4.41589924    0.63788168    0.05554549
 C                 -5.04041637   -0.58485474    0.58070642
 H                 -4.75171850   -0.72255278    1.60178076
 H                 -6.10498848   -0.49601777    0.51992636
 H                 -4.71912262   -1.42601270    0.00267214
 C                 -4.85730280    1.79349120    0.84966734
 H                 -4.40272231    2.68351024    0.46740734
 H                 -5.92187491    1.88232817    0.78888729
 H                 -4.56860492    1.65579315    1.87074169

 1 2 1.5 6 1.5 7 1.0
 2 3 1.5 8 1.0
 3 4 1.5 11 1.0
 4 5 1.5 9 1.0
 5 6 1.5 10 1.0
 6 13 1.0
 7
 8
 9
 10
 11 12 3.0
 12
 13 14 1.0 18 1.0
 14 15 1.0 16 1.0 17 1.0
 15
 16
 17
 18 19 1.0 20 1.0 21 1.0
 19
 20
 21

