%chk=C:\G09W\Final\170tdenergy.chk
# td b3lyp/3-21g geom=connectivity

Title Card Required

0 1
 C                 -2.33356183   -0.70394063   -0.16414458
 C                 -0.93927091   -0.82029243   -0.08453879
 C                 -0.16477430    0.28313149    0.29825698
 C                 -0.78456876    1.50290662    0.60144901
 C                 -2.17885969    1.61925834    0.52184354
 C                 -2.95335625    0.51583462    0.13904706
 H                 -2.92490703   -1.54642875   -0.45641947
 H                 -0.46604420   -1.75161822   -0.31603128
 H                 -0.19322350    2.34539492    0.89372327
 H                 -2.65208669    2.55058309    0.75333955
 C                  1.36741381    0.15527343    0.38573215
 N                  2.50819760    0.06007876    0.45086183
 N                 -4.41589924    0.63788168    0.05554549
 C                 -5.00913424   -0.69457464   -0.12757303
 H                 -4.75004925   -1.31753969    0.70290245
 H                 -6.07370635   -0.60573767   -0.18835309
 H                 -4.63545763   -1.13032974   -1.03055880
 C                 -4.92926804    1.23653587    1.29609602
 H                 -4.49745753    2.20641905    1.42938638
 H                 -5.99384015    1.32537284    1.23531597
 H                 -4.67018304    0.61357081    2.12657150

 1 2 1.5 6 1.5 7 1.0
 2 3 1.5 8 1.0
 3 4 1.5 11 1.0
 4 5 1.5 9 1.0
 5 6 1.5 10 1.0
 6 13 1.0
 7
 8
 9
 10
 11 12 3.0
 12
 13 14 1.0 18 1.0
 14 15 1.0 16 1.0 17 1.0
 15
 16
 17
 18 19 1.0 20 1.0 21 1.0
 19
 20
 21

