%chk=C:\G09W\Final\energy.chk
# b3lyp/3-21g geom=connectivity

Title Card Required

0 1
 C                 -2.35123729   -0.74827155    0.08064918
 C                 -0.95694636   -0.86462315    0.16025501
 C                 -0.16477430    0.28313154    0.29825699
 C                 -0.76689329    1.54723767    0.35665527
 C                 -2.16118423    1.66358926    0.27704977
 C                 -2.95335625    0.51583462    0.13904706
 H                 -2.95607812   -1.62460758   -0.02472028
 H                 -0.49721524   -1.82979635    0.11566804
 H                 -0.16205241    2.42357375    0.46202409
 H                 -2.62091558    2.62876217    0.32164041
 C                  1.36741377    0.15527292    0.38573206
 N                  2.50819756    0.06007789    0.45086135
 N                 -4.41589924    0.63788168    0.05554549
 C                 -4.85320402    1.81847802    0.81439779
 H                 -4.39808298    2.69532395    0.40341598
 H                 -5.91777613    1.90731500    0.75361774
 H                 -4.56206324    1.71214075    1.83852153
 C                 -4.81587770    0.78397121   -1.35142824
 H                 -4.49756742   -0.07537443   -1.90379012
 H                 -5.88044981    0.87280819   -1.41220829
 H                 -4.36075665    1.66081714   -1.76241005

 1 2 1.5 6 1.5 7 1.0
 2 3 1.5 8 1.0
 3 4 1.5 11 1.0
 4 5 1.5 9 1.0
 5 6 1.5 10 1.0
 6 13 1.0
 7
 8
 9
 10
 11 12 3.0
 12
 13 14 1.0 18 1.0
 14 15 1.0 16 1.0 17 1.0
 15
 16
 17
 18 19 1.0 20 1.0 21 1.0
 19
 20
 21

