%chk=C:\G09W\Final\UVVISZINDOacetonitrile.chk
# rzindo=(nstates=10) scrf=(cpcm,solvent=acetonitrile) geom=connectivity

Title Card Required

0 1
 C                  0.18558600   -1.21525300   -0.00003200
 C                 -1.20301100   -1.21029400    0.00000500
 C                 -1.92666600    0.00001200    0.00003500
 C                 -1.20301800    1.21029800    0.00011700
 C                  0.18559900    1.21524700    0.00010400
 C                  0.92134100    0.00001200   -0.00006800
 H                  0.70185400   -2.16596700    0.00001100
 H                 -1.74144500   -2.15194800    0.00002500
 H                 -1.74140600    2.15197700    0.00023000
 H                  0.70182900    2.16598500    0.00026400
 C                 -3.35315900    0.00000000   -0.00000500
 N                 -4.52923900   -0.00001200   -0.00008400
 N                  2.30589900    0.00000000   -0.00037400
 C                  3.04293700    1.26451800   -0.00003200
 H                  2.81613700    1.86731600    0.88991000
 H                  4.11302400    1.05430200   -0.00124100
 H                  2.81447300    1.86849100   -0.88871600
 C                  3.04294100   -1.26453300    0.00018400
 H                  2.81508300   -1.86832500   -0.88878500
 H                  4.11302600   -1.05431100   -0.00019200
 H                  2.81550300   -1.86747900    0.88985000

 1 2 1.5 6 1.5 7 1.0
 2 3 1.5 8 1.0
 3 4 1.5 11 1.5
 4 5 1.5 9 1.0
 5 6 1.5 10 1.0
 6 13 1.0
 7
 8
 9
 10
 11 12 3.0
 12
 13 14 1.0 18 1.0
 14 15 1.0 16 1.0 17 1.0
 15
 16
 17
 18 19 1.0 20 1.0 21 1.0
 19
 20
 21

